/*--------------------------------*- C++ -*----------------------------------*\
| =========                 |                                                 |
| \\      /  F ield         | OpenFOAM: The Open Source CFD Toolbox           |
|  \\    /   O peration     | Version:  v1906                                 |
|   \\  /    A nd           | Web:      www.OpenFOAM.com                      |
|    \\/     M anipulation  |                                                 |
\*---------------------------------------------------------------------------*/
FoamFile
{
    version     2.0;
    format      ascii;
    class       volScalarField;
    location    "0";
    object      c;
}
// * * * * * * * * * * * * * * * * * * * * * * * * * * * * * * * * * * * * * //

dimensions      [1 -3 0 0 0 0 0];


internalField   uniform 0.02;

boundaryField
{
    front_face
    {
        type            empty;
    }
    back_face
    {
        type            empty;
    }
    potato_surface
    {
        type            fixedValue;
        value           uniform 2.00;
    }
    potato_center
    {
        type            fixedValue;
        value           uniform 2.00;
    }
    oven_boundary
    {
        type            fixedValue;
        value           uniform 0.06;
    }
    defaultFaces
    {
        type            fixedValue;
        value           uniform 2.00;
    }
}


// ************************************************************************* //
