/*--------------------------------*- C++ -*----------------------------------*\
| =========                 |                                                 |
| \\      /  F ield         | OpenFOAM: The Open Source CFD Toolbox           |
|  \\    /   O peration     | Version:  v1906                                 |
|   \\  /    A nd           | Web:      www.OpenFOAM.com                      |
|    \\/     M anipulation  |                                                 |
\*---------------------------------------------------------------------------*/
FoamFile
{
    version     2.0;
    format      ascii;
    class       volScalarField;
    location    "0";
    object      p;
}
// * * * * * * * * * * * * * * * * * * * * * * * * * * * * * * * * * * * * * //

dimensions      [1 -1 -2 0 0 0 0];


internalField   uniform 0;

boundaryField
{
    front_face
    {
        type            empty;
    }
    back_face
    {
        type            empty;
    }
    potato_surface
    {
        type            darcyGradPressure;
    }
    potato_center
    {
        type            fixedValue;
        value           uniform 1000;
    }
    oven_boundary
    {
        type            fixedValue;
        value           uniform 0;
    }
    defaultFaces
    {
        type            darcyGradPressure;
    }
}


// ************************************************************************* //
